20
Properties=species:S:1:pos:R:3:momenta:R:3:forces:R:3 pbc="F F F"
O       -1.06080773      -2.28007822       1.75285005      -0.43213301       0.43417177      -2.03818206      -0.01315364       0.00814844      -0.00510174
C       -0.77791165      -1.18700073       1.37778747       0.48285482      -0.33307220      -0.89578980      -0.18525118      -0.15977124       1.15376460
C       -0.22765315      -0.02273767       2.13671753      -0.45951413      -0.48444798      -3.18847999      -0.01189653       0.02226547      -0.01391061
C       -0.38480085       1.29111338       1.36321330      -1.84184079       1.09216269      -0.20864122       0.01385259       0.01488442      -0.01055289
C        0.10523820       1.17709444      -0.09225884       1.58514696       0.85289043       0.21762592      -0.00201202       0.00947135      -0.00097198
C       -0.70196731       0.17785546      -0.86485486      -1.57642799      -0.57406096       1.44250651      -0.52236833      -1.05079207       0.48294446
H       -1.75745966       0.43162987      -0.99957899      -0.03350231       0.17235613       0.10685048       0.01242577       0.00289132       0.03815847
C       -0.11386001      -0.56230891      -2.00823621       0.49880807       0.20302573       1.44934035      -0.00093905      -0.01207158      -0.01689971
O       -0.81172812      -0.91017530      -2.94091797      -3.02584361      -0.63453193       0.63635283      -0.00892259      -0.01316208      -0.01136576
C        1.35243430      -0.89665249      -1.97062194      -0.26543576       1.48937849      -0.75416494       0.00396711      -0.00249133      -0.01236487
H       -0.92079943      -0.88696203       0.11147877      -0.32487793       0.01802215      -0.25378387       0.77509514       1.18186757      -1.74500279
H       -0.72018755       0.04990635       3.13024693       0.18061569      -0.29936990       0.36269454       0.00616685      -0.03110318       0.00121567
H        0.84474197      -0.21939854       2.35785900      -0.04142489      -0.40115399       0.05248885      -0.02982239      -0.00408638       0.01910043
H       -1.44712704       1.60838374       1.37682199       0.15407545       0.04128908      -0.27918482       0.00510006      -0.01318905       0.00990136
H        0.17607155       2.09363912       1.88109593      -0.44334880       0.42877133       0.09823330      -0.01768485       0.00515276       0.02651462
H        0.02760038       2.17176298      -0.58358682      -0.37290680      -0.01063020      -0.30973847       0.03713406       0.00933890       0.01803879
H        1.18445235       0.92514976      -0.10011889       0.26030269       0.35126870       0.27982552      -0.02646754       0.00456460       0.03560692
H        1.96786560      -0.01228047      -2.18005286       0.00242945      -0.32588334       0.24619893      -0.02086370       0.00654603       0.02999412
H        1.66738151      -1.30621239      -1.00498672       0.05272260      -0.00532190      -0.36274399      -0.02747856       0.01671538       0.01786062
H        1.59851666      -1.64272835      -2.74285688       0.20579895       0.24995884       0.21335603       0.01311881       0.00482065      -0.01692971
