22
Properties=species:S:1:pos:R:3:momenta:R:3:forces:R:3 pbc="F F F"
C        4.59920066      -0.77973656       1.73826359      -0.44813832      -0.22483511       0.26938659      -0.00640408       0.00948490      -0.00462104
C        3.40079971      -0.59240144       0.80388604      -1.02543695      -0.41871176      -0.76059032      -0.00043264       0.00174181      -0.00894132
C        2.69980566      -1.92448089       0.52837590      -0.37591720      -0.56250749      -0.40847615      -0.00424825       0.00636104       0.00277025
C        2.49143792      -2.80888470       1.76009850       1.26362578      -1.96262227      -1.18396693       0.22576889      -1.79097027      -1.40319590
C        3.23171926      -2.48800296       3.01436196       1.36913220      -2.19026015       0.12736110       2.53293650      -2.41066689       1.18929829
C        4.12816574      -1.28182183       3.10569371       0.01211943      -1.18769770       0.42441736       0.01672327       0.00443206      -0.01031097
H        5.31451179      -1.50654151       1.30002620      -0.15530277       0.40635492      -0.01385616      -0.01568641      -0.00498280      -0.00180616
H        5.15325238       0.17035635       1.85110546      -0.00042103      -0.25824873      -0.07855924       0.00817086      -0.00654827       0.00132347
H        2.68630395       0.13267456       1.23733799      -0.16631417       0.20164084      -0.04705847      -0.00004887       0.00609917       0.01960520
H        3.73684603      -0.15103178      -0.15474231      -0.00914073       0.03899667       0.12885579      -0.00909775       0.01794068      -0.00392692
H        1.73408684      -1.73675330       0.01931321       0.32848249       0.32712812      -0.07586526       0.01680290      -0.00194824       0.00414225
H        3.30289649      -2.51454466      -0.20217296       0.26047232       0.24953455       0.04109397      -0.00397706       0.01844508       0.01428928
C        1.04315626      -3.20105401       1.99592709      -0.24968134       0.71245970       0.28396970      -0.01360900      -0.00105096      -0.00154241
H        2.68727010      -2.69894484       3.94912372      -0.18069307      -0.02116242      -0.25379389       0.01473525      -0.00970317      -0.01507577
H        5.00881698      -1.53319609       3.73727493      -0.20862776       0.13011664      -0.10424688       0.00944997      -0.01083769       0.00025027
H        3.59757295      -0.46831204       3.64311343      -0.24674765       0.02117269       0.15325761      -0.00917906       0.00610401       0.00889030
H        0.58811543      -3.60694134       1.08177728      -0.26671858       0.12462287       0.03731913      -0.00648737      -0.00293715      -0.01662382
H        0.43352560      -2.35515961       2.32778979       0.21551236       0.03513561       0.02836219       0.00385242       0.02100874      -0.00241665
H        0.96388041      -4.00202618       2.74661118      -0.07687795      -0.09603605       0.01510553       0.00321704       0.00369185       0.00340210
O        4.28679166      -3.86918262       3.10703634      -0.99101688       1.06942591       1.18092179      -1.94851271       2.80974184      -0.06790219
O        4.41513446      -4.14595827       1.79310530       0.94943608      -0.80911577      -0.73092108      -0.02372340      -0.02218683       0.01152167
O        3.10505837      -4.21203443       1.32769652       0.04362293       2.40891553       0.20170759      -0.79025050       1.35678108       0.28087007
