9
Properties=species:S:1:pos:R:3:momenta:R:3:forces:R:3 pbc="F F F"
C       -3.81562635      -0.98839014       6.55396612      -0.41071145       0.35073684      -0.51809996       0.00442187      -0.02661107       0.02310752
C       -4.24739820       0.31686862       6.94738497      -0.30424145       1.06703064      -0.28703583      -1.14251912       2.16943056       0.48072726
H       -4.05768220      -1.18868724       5.49377294       0.01018845       0.33322861       0.40347191       0.02647949      -0.02015065       0.00488055
H       -4.32562495      -1.77437154       7.14784119      -0.07370981       0.29162134      -0.19350260       0.00850118       0.03490981      -0.01181703
H       -2.72939684      -1.12564889       6.68758093      -0.02726035      -0.01082706      -0.01069033       0.01399916      -0.00067192      -0.00597560
C       -4.60257642       1.46236719       7.26220829       0.64977376       0.55028170       0.37985315       0.14356526      -2.45164552      -0.66163497
H       -4.88784882       2.40660479       7.56518700       0.34892704       0.01879732      -0.21079781       0.01584194      -0.01359806      -0.01627931
O       -6.40795788       0.40332003       6.76948037      -0.80915419       0.87834863      -0.58678014       0.92282939       0.32520332       0.17032326
H       -6.57314380       0.79346199       5.89641864       0.53476435      -0.07171968       0.20983310       0.00688084      -0.01686647       0.01666832
