24
Properties=species:S:1:pos:R:3:momenta:R:3:forces:R:3 pbc="F F F"
O       -0.36387205       0.04097167       1.60921156       0.55632928       0.81348547       1.29909855      -0.06082074       0.01847252       0.02654481
C       -1.40460287       0.65131967       1.63090706      -0.40039852       1.18589290       0.27745436       0.04786663      -0.03307779      -0.02338456
C       -2.15481497       1.10774571       0.38443563       0.52193515      -0.22826471      -1.71886390      -0.01048933       0.00325020      -0.02271124
C       -3.63110186       1.33793820       0.57736315      -2.21765841      -1.02458134      -0.04182490       0.82332882      -0.09987055       0.37093169
C       -4.32709695       2.46629209      -0.11253352      -0.11575231       0.26789691       1.11235463      -0.00073186      -0.01777323       0.00360295
C       -5.72857393       2.71308048       0.47524751       0.51857901      -0.25382743      -1.72343764      -0.00099533       0.00775950       0.01288624
H       -5.74573165       3.61482239       1.13051250      -0.24599029       0.16486763      -0.18733775      -0.01060410       0.00564437       0.04045594
C       -6.81266488       2.88628326      -0.61571420      -1.02622311      -1.19806771       0.31776021       0.01858074      -0.02013744      -0.01771705
O       -6.56120765       3.53652760      -1.60375511       1.10239419       1.12132441       0.74790062       0.00856044      -0.04757940       0.02401660
C       -8.12992892       2.24823770      -0.34013009       1.42453145      -1.42134771       1.11506645      -0.00573602      -0.00319896      -0.01845058
H       -6.27006491       1.68504198       3.13274423      -0.05859096      -0.37825376      -0.05299847       0.03267030      -0.00395560      -0.01765774
H       -1.64094145       2.01941025      -0.00074069      -0.48691435      -0.00367173      -0.04804370       0.00407545       0.01060942      -0.01018228
H       -1.98553361       0.33401842      -0.40604098       0.29081727      -0.06815758       0.55623719       0.00633661      -0.01957361       0.03274603
H       -4.22761048       0.43687861       0.75660434       0.25657203      -0.29688722       0.48483051      -0.04274078      -0.06437256      -0.02642468
H       -3.37424030       1.72276644       1.85065763       0.62118120       0.63427261       0.02938639      -0.79373661       0.40971067       2.03192401
H       -3.74090701       3.41143939      -0.07047392       0.19362396       0.34223438       0.13432943      -0.01394058      -0.02911524       0.00055032
H       -4.40477011       2.24487405      -1.20643036      -0.55568389       0.20558736       0.27129718       0.00370942      -0.01041896       0.00959583
H       -8.60687462       1.87740976      -1.25861197       0.23790985       0.05363180      -0.11934986      -0.00048050       0.04403501      -0.01751271
H       -8.05147850       1.39923161       0.36447031      -0.02440511       0.20636072       0.05731745      -0.01788234       0.01914696      -0.00530059
H       -8.82694330       2.96790347       0.11827987       0.28142296       0.16690974      -0.59328742       0.00051556      -0.00756104      -0.01861578
O       -6.03247294       1.53839820       1.27893221      -0.80719761      -2.67293950      -3.55704495       0.00027833       0.02776858       0.03138754
O       -6.83774694       1.99313399       2.35913706      -0.40624306       0.46322048       1.31645578      -0.01634926       0.03005098       0.01395244
O       -2.97979154       1.65199175       3.14068596       0.18871186      -0.25442817      -0.04794354      -0.01632584      -0.18906333      -2.39585505
O       -1.85397326       0.87131193       2.95199519      -0.07758386       0.19105095       2.37250987       0.04491098      -0.03075051      -0.02478214
