22
Properties=species:S:1:pos:R:3:momenta:R:3:forces:R:3 pbc="F F F"
C       -0.21318585       0.28525101       1.41575526       0.03508251      -1.97310859       1.42376532       0.03461944       0.05564417      -0.06180735
C       -0.19827034      -0.16683921      -0.04935814       1.77476368       0.64433973       0.49274713       0.00917065       0.02959797      -0.05541912
C        0.61534436       0.73031211      -0.91305485       1.50641218      -1.09023445       0.45737660      -0.32456972       0.13998076       0.81758192
C        0.64786563       0.59235798      -2.32106678      -0.24244554       0.00236095      -0.41648456       1.74581144       0.93908206      -4.09643208
C       -1.13486632      -0.18586964       3.72175630       1.41668956      -0.12152409       0.69908854      -0.03391090       0.05781092       0.04673257
C       -1.00814203      -0.68162065       2.29799242      -1.17937266      -0.16802874       0.69352410       0.01891408       0.05422041      -0.02197489
H        0.82340857       0.37380826       1.80235791      -0.01721138      -0.03222679       0.12685175       0.00983799      -0.01293053       0.04324846
H       -0.64258637       1.30555589       1.50362650       0.06186132      -0.26017093      -0.22159714      -0.01478033      -0.04730273      -0.01484292
H        0.20600546      -1.20304604      -0.12269817       0.28756245      -0.75459371      -0.05154884       0.01562534      -0.01170728      -0.01057588
H       -1.23776237      -0.23409996      -0.43917034       0.31627029      -0.18511059      -0.24576361       0.01259141      -0.04076730      -0.01135728
H        1.15545661       1.55564258      -0.43792619       0.27988671      -0.56450746      -0.23566656       0.05598816       0.07806606      -0.01095992
H        3.49801345       0.27323626      -1.47792327      -0.20123303       0.39916641       0.06181095      -0.03000146       0.03634542       0.04230822
C       -0.28154699      -0.22405136      -3.14773244      -2.90321819      -1.54556274       0.61571563       0.02136409      -0.00300072      -0.03028674
H       -1.59478756      -0.90389706       4.42137840      -0.81419846      -0.28342958       0.16229984       0.01075709      -0.01502086      -0.01530022
H       -2.02596740      -0.83700213       1.88240514       0.27300403      -0.06469119       0.05505811      -0.00264608       0.02181831      -0.00502201
H       -0.53384765      -1.68443806       2.29416385      -0.39819646      -0.00909637       0.06782451      -0.00665492      -0.00723943      -0.00756112
H       -0.26539119      -1.28324797      -2.85292228       0.14995615       0.11416621      -0.02581632      -0.02188485       0.05296110      -0.02100374
H        0.00146991      -0.18665649      -4.21162789      -0.26105309       0.14897795      -0.17541164       0.04036635      -0.02945453      -0.00724738
H       -1.31615245       0.13401670      -3.06857095       0.05472379       0.06825886      -0.29626105      -0.02872163       0.03487692      -0.00221850
O       -0.77363161       0.90944097       4.08474120       0.00591421      -0.84149097       0.50957398       0.01570338      -0.04641077       0.01017335
O        2.52874651       0.36688443      -1.53857249       1.15349555      -1.01902083      -0.17117204      -1.49785365       0.27261402      -0.44672107
O        1.74982763       1.06426238      -2.84355319      -0.00728906       0.29997826      -0.53794483      -0.02972588      -1.55918397       3.85868572
