22
Properties=species:S:1:pos:R:3:momenta:R:3:forces:R:3 pbc="F F F"
C        5.37631475      -8.08047041      -1.09660186       0.90958777      -0.03324760       0.67491134      -0.01176536       0.01828725      -0.02692538
C        6.59533819      -7.21355300      -1.46311429       0.51952146      -0.63370778      -1.26904489      -0.00378941      -0.00992834      -0.05474315
C        6.96888395      -7.09437234      -2.84930369       1.10879542      -0.25923407       0.84810094       0.13985045      -0.95498053      -2.76183395
C        6.15957351      -7.21675222      -4.15739347      -1.15797807       1.18944296      -1.14656584      -0.05285322       0.04685863      -0.03516687
C        6.58957210      -9.19932869       0.82797958      -0.39128387       1.01932887      -0.00212023      -0.09989820      -0.04797532       0.07874539
C        5.75882771      -9.39926406      -0.42175509       1.42262242      -0.48556366       0.92347946      -0.00138365       0.01056171      -0.04354417
H        4.70658559      -7.51431620      -0.41098861      -0.08429600       0.03260583       0.13840583       0.04984427       0.01835807      -0.06816254
H        4.75558837      -8.28798219      -1.99427789       0.03482548      -0.37812706      -0.05440633       0.07230570      -0.01517707       0.01000280
H        6.44074098      -6.17008383      -1.05875119      -0.05835957       0.04488023       0.04776041      -0.00536473       0.02098654      -0.04840547
H        7.49473962      -7.53193502      -0.86122696       0.32368144      -0.40736384      -0.39870764       0.00437185      -0.03703037      -0.04203970
H        7.96861930      -6.81048167      -3.22419789       0.22636308      -0.05840206      -0.23214950       0.53069830       0.10068060       0.42292741
H        9.26293495      -9.16333757      -4.62643545       0.13666436      -0.56775999       0.29657893      -1.11519196       3.40959746      -1.33354738
C        5.16148745      -6.08300709      -4.18577652       1.08581147      -0.48609928      -0.85834903      -0.02252181       0.01654425      -0.02142983
H        7.28159174      -8.33921818       0.79585826       0.13576474      -0.33670805      -0.00838133       0.04453774      -0.03768869       0.05560545
H        4.84211733      -9.98522380      -0.17629645      -0.20844752      -0.27691247      -0.05118334       0.03984187       0.04725764      -0.01241970
H        6.31762905     -10.06694189      -1.11283968      -0.13167646      -0.04232469       0.33551188       0.01729712       0.02486143      -0.05875336
H        5.05561662      -5.49855825      -3.27024029      -0.48511420      -0.08242736      -0.13994058      -0.00765720      -0.02587467       0.00010040
H        4.16862806      -6.47138817      -4.46153634      -0.49520302      -0.40896320      -0.47290508      -0.04017157       0.03772983       0.00617542
H        5.44665642      -5.38763168      -4.99875146      -0.08664570      -0.17762781      -0.23190025      -0.05751501       0.01877031       0.03394824
O        6.50431989      -9.92621058       1.78839272      -0.55886887      -1.16271608       0.90707983       0.01140418       0.01552568      -0.05277032
O        8.94087738      -8.16647408      -4.98627959       1.69751694      -1.94177576      -0.90515883       0.39278774      -2.92126880       2.27681533
O        6.33053188      -7.92520320      -5.12202225      -1.61111062      -1.36544101      -0.37562623       0.11517290       0.26390441       1.67542137
