22
Properties=species:S:1:pos:R:3:momenta:R:3:forces:R:3 pbc="F F F"
O        1.13480385      -0.88135719       4.12957701       1.42908803       0.05870253       1.78406565       0.00510228       0.11554849      -0.03107940
C        1.03015308       0.07594016       3.39806489      -0.49607531       0.17969022      -0.13471640      -0.05764240      -0.12765832      -0.01073384
C        1.36871051      -0.00553647       1.92602228      -1.71792315       0.44228421       0.58459502       0.03173865       0.01315516       0.02752587
C        0.60670731       0.93144081       1.08086443       1.16632186       1.54978437      -1.61608840       0.95791428       0.93913685      -0.22446202
C        0.83749242       0.98503147      -0.37795692      -0.58527684      -0.20453499      -0.48637291       0.00479358      -0.00760346      -0.00340963
C        0.20666632      -0.17058924      -1.17666845       1.78262695       0.00436673       2.24154365      -0.04719355       0.13419726      -0.07301566
H        0.99409254      -0.71088639      -1.76749269      -0.12400792      -0.00219092       0.75998755       0.06043801       0.06077564       0.01309760
C       -0.88690549       0.32599321      -2.15318169       0.26593502       1.24124458      -0.87164818      -0.04865646       0.03001615      -0.03938272
O       -0.90440037       1.47953934      -2.51344607       3.17699370       0.63527944      -2.48289591      -0.03558790      -0.11293769       0.04206590
C       -1.84801009      -0.70713102      -2.63511953      -0.37714923       0.43140760      -0.49040339      -0.01951071       0.00104887      -0.02292864
H        0.69390247       1.05883310       3.76461527      -0.08756969       0.24975926       0.03113478      -0.05097609       0.08214563      -0.11254959
H        2.46664198       0.16136251       1.80807452       0.03942005       0.14597452       0.16151934       0.02138993       0.03795281       0.02306460
H        1.23259133      -1.05313539       1.55277258       0.76229766       0.11451897       0.05295695       0.00402402      -0.00726075      -0.01752054
H       -1.14886097      -0.82634263       1.20466705      -0.27681927      -0.52298855       0.41823952      -1.89371922      -3.09499604       0.77778613
H       -0.11957626       1.59397515       1.51922131      -0.00838396      -0.12097996      -0.52668887      -0.00536175       0.05271248      -0.00161952
H        0.45450100       1.95532375      -0.78701520       0.04504624       0.50568873      -0.18543376       0.06640851      -0.03858572       0.02388443
H        1.92995597       1.00885992      -0.58653581      -0.55128224       0.07401344       0.10585068       0.01245220      -0.01151088      -0.04194830
H       -2.37602261      -1.18069136      -1.78560808       0.30137044      -0.19177126      -0.72655099      -0.00541500      -0.07524176      -0.04780834
H       -2.60758797      -0.27511876      -3.30237679       0.16460982       0.20253460       0.07271469       0.00014993      -0.00439258       0.02124387
H       -1.34859198      -1.52329252      -3.17344736      -0.34863452       0.31458489       0.03022421      -0.00191674       0.05584746       0.01421179
O       -1.46777741      -0.95710644       0.25981774       1.20223786      -0.79417132       0.82030641       0.98711186       1.79132652      -0.36046974
O       -0.24848565      -1.28511200      -0.38484850       0.90013059       2.08074484       1.08139736       0.01445658       0.16632388       0.04404776
