9
Properties=species:S:1:pos:R:3:momenta:R:3:forces:R:3 pbc="F F F"
C       -0.53457945       1.13065632      -0.90201490       1.11298723       1.52247132      -0.35263354      -1.20455893       0.91818583      -1.65169288
C       -0.05379350       0.07808366      -0.11014595      -0.03282065       1.64203063      -1.76829851       1.23227694      -1.19412132       0.92455875
H       -1.59380780       1.27793062      -1.04248129      -0.11513174       0.01460915       0.30736974       0.24398904       0.18743648       0.00018630
H        0.09691125       1.60160190      -1.63877469       0.26229809      -0.11487645      -0.01863978      -0.07034182      -0.17435837       0.32069137
H       -0.11823690       1.36669478       0.40659246       0.26424463      -0.16425320       0.42322444       0.30539828       0.34473059       0.65577542
C        0.29217658      -1.14427489       0.20732117       0.46417853      -0.68946553      -0.42399592      -0.14666278      -0.40255502      -0.13802021
H        0.24359156      -2.03613105      -0.41452383      -0.02782034       0.08871793      -0.41929807       0.08081407       0.21881257      -0.24872794
O        0.79667018      -1.51725209       1.43529473      -1.87968196      -2.08893846      -0.21600685      -0.45497510      -0.14717470       0.07264520
H        0.87106808      -0.75730924       2.05873230       0.46608609       0.54067331      -0.46906802       0.01406029       0.24904394       0.06458398
