22
Properties=species:S:1:pos:R:3:momenta:R:3:forces:R:3 pbc="F F F"
C        1.04004908       1.32591964       0.59292414      -1.74591162      -0.42769120       2.09697073      -0.00429568       0.00031431      -0.01070551
C       -0.36456839       1.68802994       0.09703814      -0.25318294      -0.23168570      -0.92827673      -0.00083760      -0.00670241      -0.01490498
C       -0.91362776       0.89554510      -1.10397778      -1.21461754      -0.07761160      -2.15131574       0.01542213       0.00896900      -0.02126692
C       -0.11645625      -0.31983463      -1.55030727      -0.74756583       0.02008654      -1.21093375      -0.82975137       0.44844109      -1.63820014
C        0.22242846      -0.85857161       1.49352191       2.11032349      -0.37591857       0.23631694       0.46672328       0.06981327       1.92760724
C        1.05609347       0.33460351       1.77065184       0.60438630      -0.66818131       1.26669396       0.00438534       0.00707908       0.00098869
H        1.65965145       0.92937801      -0.24539869      -0.03434145       0.21186198       0.47365373      -0.01104839      -0.00859642      -0.00876293
H        1.56355116       2.25003023       0.91231346      -0.30649159       0.24178944      -0.00689020       0.01551169       0.01212614       0.00311440
H       -1.08653769       1.61035689       0.93443672      -0.08289903       0.45635336       0.14558764       0.00403267      -0.01159820       0.00508902
H       -0.36435422       2.76363527      -0.18187892      -0.16007554       0.07318994       0.30864521      -0.00102877      -0.01617386      -0.00604797
H       -1.96489696       0.61703142      -0.89660307       0.02980380      -0.01981623      -0.22733645      -0.00702310       0.01534589      -0.01135326
H       -0.96189959       1.57412094      -1.98566980      -0.12240174       0.27339967      -0.77603550       0.01801269      -0.00218481       0.00302349
C       -0.84128797      -1.62645565      -1.59257044      -0.74910108       1.47218144      -1.04304215       0.01165984      -0.01048007      -0.01151366
H       -0.85387343      -0.81906690       1.40115716      -0.15571241       0.02164695      -0.13843140      -0.00105185       0.00207630       0.00043594
H        2.10905087       0.04582308       1.98829602       0.14252335       0.00682440       0.47703194      -0.00259668       0.00885813       0.01777702
H        0.68557599       0.83346005       2.69437795       0.18867908       0.03760349      -0.00558923      -0.02141799       0.01209740      -0.02719793
H       -1.93045576      -1.55109719      -1.56394848       0.30628340       0.28269486      -0.27000095       0.01898442      -0.03082863      -0.00201593
H       -0.53727407      -2.28045413      -0.74017052       0.05771979      -0.21024033      -0.87329065      -0.01241266       0.01986871      -0.03351429
H       -0.56193194      -2.20520819      -2.48661468       0.09794745       0.38439673       0.11659012      -0.00317221      -0.00762026       0.01288711
O        0.89376327      -1.98255024       1.32482197       1.26111629      -1.08047662      -0.01345311       0.00733776       0.00771667      -0.00495073
O        0.22441901      -3.00087374       1.03373035       2.05351447       1.31592960       0.02769166       0.46260904      -0.39060475      -0.36218888
O        1.04258125      -0.22382180      -1.89613000      -2.04924297       0.72028433       0.73523865      -0.13004257      -0.12791660       0.18170022
