9
Properties=species:S:1:pos:R:3:momenta:R:3:forces:R:3 pbc="F F F"
C       -1.13641904       4.85134399       4.05564680       1.11455845      -0.56012398       3.07319786      -0.01374966      -0.00864802       0.00627291
C       -1.86669473       3.98409675       4.90487252       3.20720587       3.73121479      -5.16951299       0.00349869      -0.01365798      -0.00136518
H       -1.73011563       5.14038612       3.16780756       0.86980308      -0.96042402       1.76990068       0.01464771       0.00272475      -0.01285615
H       -0.19385312       4.39722564       3.70080772      -1.79605412       2.71668721      -0.13859411      -0.01759128      -0.01146888      -0.00487131
H       -0.86908071       5.79205855       4.57547105       0.14024924      -1.76075138      -2.37948455      -0.00456416       0.00622226       0.00785508
C       -2.52196811       3.21025211       5.72523320      -2.59803326      -3.99879407       5.41567775       0.01176991       0.01053748       0.03342160
H       -2.47799574       3.20730971       6.81332572       0.08171500      -0.73898781      -1.12253041      -0.01653836       0.00396421      -0.02612281
O       -3.41879388       2.23131968       5.33507076      -0.74637327       5.88519505      10.97809965       0.02674538      -0.02287182       0.01085879
H       -3.46751163       2.14646837       4.35251414       0.26389375      -4.14789438      -9.23884089      -0.00421821       0.03319799      -0.01319293
