22
Properties=species:S:1:pos:R:3:momenta:R:3:forces:R:3 pbc="F F F"
C        5.72091116      -5.66226209       0.78021888       0.03508251      -1.97310859       1.42376532       0.03461944       0.05564417      -0.06180735
C        5.28819950      -4.73572909      -0.36992025       1.77476368       0.64433973       0.49274713       0.00917065       0.02959797      -0.05541912
C        6.05568721      -4.86302601      -1.61964175       1.50641218      -1.09023445       0.45737660      -0.32456972       0.13998076       0.81758192
C        6.49714348      -6.06249593      -2.24932633      -0.24244554       0.00236095      -0.41648456       1.74581144       0.93908206      -4.09643208
C        5.30595515      -7.78528109       2.06942720       1.41668956      -0.12152409       0.69908854      -0.03391090       0.05781092       0.04673257
C        4.75056579      -6.81667107       1.04251439      -1.17937266      -0.16802874       0.69352410       0.01891408       0.05422041      -0.02197489
H        6.74062503      -6.06859853       0.58278565      -0.01721138      -0.03222679       0.12685175       0.00983799      -0.01293053       0.04324846
H        5.84337279      -5.05824694       1.70594371       0.06186132      -0.26017093      -0.22159714      -0.01478033      -0.04730273      -0.01484292
H        4.20122544      -4.88990661      -0.60159207       0.28756245      -0.75459371      -0.05154884       0.01562534      -0.01170728      -0.01057588
H        5.32034775      -3.67692384      -0.00873407       0.31627029      -0.18511059      -0.24576361       0.01259141      -0.04076730      -0.01135728
H        6.24910032      -3.93698290      -2.18163276       0.27988671      -0.56450746      -0.23566656       0.05598816       0.07806606      -0.01095992
H        9.72794016      -6.33802959      -3.37089527      -0.20123303       0.39916641       0.06181095      -0.03000146       0.03634542       0.04230822
C        6.54586891      -7.44191113      -1.73138835      -2.90321819      -1.54556274       0.61571563       0.02136409      -0.00300072      -0.03028674
H        4.66024703      -8.65091570       2.28683254      -0.81419846      -0.28342958       0.16229984       0.01075709      -0.01502086      -0.01530022
H        3.77214311      -6.43594158       1.40027311       0.27300403      -0.06469119       0.05505811      -0.00264608       0.02181831      -0.00502201
H        4.52825816      -7.36442771       0.10435131      -0.39819646      -0.00909637       0.06782451      -0.00665492      -0.00723943      -0.00756112
H        7.00067439      -7.49824278      -0.72530651       0.14995615       0.11416621      -0.02581632      -0.02188485       0.05296110      -0.02100374
H        7.23291171      -8.03234770      -2.37797213      -0.26105309       0.14897795      -0.17541164       0.04036635      -0.02945453      -0.00724738
H        5.57945523      -7.95361292      -1.72020919       0.05472379       0.06825886      -0.29626105      -0.02872163       0.03487692      -0.00221850
O        6.36700251      -7.61657033       2.62097264       0.00591421      -0.84149097       0.50957398       0.01570338      -0.04641077       0.01017335
O        9.25018969      -6.15520616      -2.57962422       1.15349555      -1.01902083      -0.17117204      -1.49785365       0.27261402      -0.44672107
O        6.94755575      -5.76851863      -3.45514487      -0.00728906       0.29997826      -0.53794483      -0.02972588      -1.55918397       3.85868572
