22
Properties=species:S:1:pos:R:3:momenta:R:3:forces:R:3 pbc="F F F"
O       -0.50639340       1.87671001       4.10438299       1.16902309       1.63585413      -0.51416867       0.09187363       0.00311825       0.04761099
C        0.03757158       2.31615202       3.20809382      -0.03460775       1.33651472       0.60116810      -0.18222478      -0.01864798      -0.15832398
C       -0.48209091       2.49993542       0.80476258       0.62129871       1.03970345      -2.55162272      -0.51467818      -1.31942042       0.10614693
C        0.82907534       2.42100387       0.18896795      -1.05862429       1.40546852       0.72994409      -0.16403181      -0.08821751       0.27368832
C        1.57077591       1.10266827       0.45266248       1.57604690       0.01231070       0.21123579       0.13802354       0.02286630      -0.11923234
C        0.79452873      -0.18030666       0.07487700       0.42970499       0.00004253       0.59143533      -0.15377818       0.29116074       0.36037864
H        1.45414240      -1.07442910       0.14316431      -0.11475468       0.13258062       0.51806826      -0.06699643       0.00184680      -0.01213439
C        0.18084794      -0.04848580      -1.33558995       0.38169772       0.67062192       1.13308803       0.12480320      -0.24665941       0.14293275
O       -0.65635721       0.78134444      -1.61054281      -0.15110791       0.77363056       0.02540501      -0.13784798       0.20858729      -0.03996751
C        0.72542357      -0.99683180      -2.36129030      -0.71732247      -0.59424292       1.05658947      -0.02156549       0.03858881      -0.06529185
H       -1.59503075      -1.51921157       1.64316772       0.18500721       0.26227683      -0.19396159       0.08453761      -0.17360196      -0.14700658
H       -1.08889067       1.54245611       0.98466711       0.38929926      -0.14753569      -0.07653507       0.79320451       0.62722610      -0.03610378
H       -1.01189096       3.42598261       0.90607537      -0.71921498      -0.02258941       0.25592732      -0.01357023       0.14497917      -0.03522978
H        0.65751230       2.54439888      -0.92321055       0.09386758       0.28011873      -0.28302538       0.00923937      -0.00598495      -0.08149845
H        1.46978709       3.29292097       0.45598769       0.05648598       0.37012714      -0.08550034       0.04178753      -0.03343601      -0.00860680
H        2.52589844       1.11783688      -0.10614359      -0.79838928       0.06809031       0.65844924       0.05982340      -0.01062861       0.01520229
H        1.84145441       1.03996726       1.52700783      -0.24123237       0.15529000       0.10328723      -0.05212715      -0.04527300       0.00400144
H        1.80993864      -1.13343497      -2.29456282      -0.55204318       0.12323110       0.46180740      -0.02141651      -0.00939613       0.01873851
H        0.26236432      -1.98920638      -2.23618675      -0.10877910       0.43811407      -0.02537012      -0.01095947      -0.03184376       0.02657340
H        0.48765631      -0.66136659      -3.38060642       0.03153697      -0.28828807      -0.47586548      -0.01874617      -0.03196469      -0.01086887
O       -0.90463263      -1.65449477       0.95917570       0.94396555       1.01561592       0.86867116      -0.99204013      -1.57625400       0.08968749
O       -0.23839017      -0.33719939       1.04397718      -0.36955125       0.50028456       0.65230741       1.00668972       2.25295497      -0.37069644
