22
Properties=species:S:1:pos:R:3:momenta:R:3:forces:R:3 pbc="F F F"
O        2.43973148       1.61869777       1.86287377       0.57745951       0.09680705       2.31799265      -0.00750805      -0.06253234      -0.09713817
C        1.97657286       1.53187248       0.74726055      -0.65966766       0.53396123       0.62509858      -0.07310993       0.02727516      -0.02508050
C        1.38811814       2.72870353       0.03107555       1.28378702      -0.61136350       0.25396782       0.03478088       0.02836232       0.04412871
C        0.13104047       2.37808692      -0.76742047       0.79924450      -0.55837001       0.19439926       0.07879617       0.02116757       0.04722728
C       -1.09256038       2.21740895       0.14919972      -1.32634945       0.59785307       1.07428554       0.06006644       0.01184518       0.05435722
C       -2.28153818       1.60120306      -0.46497729       1.79438347      -0.44597882       0.97810647       0.47628579      -0.31953237      -0.04127782
H       -3.08821087       1.32318682       0.19095714       0.73154027      -0.29118374       0.07011071      -0.12367480      -0.05663996       0.01876811
C       -2.33165117       1.22900761      -1.89241418      -0.25560640      -0.41715117      -0.60096617       0.02839523      -0.10740639       0.10690121
O       -1.87387471       1.92209043      -2.77854124      -1.28268568       0.32249196       1.64663514       0.03474072      -0.00383120      -0.04287342
C       -2.97267184      -0.10069730      -2.18567511       0.97187382      -0.18811017       0.63059005       0.00714284      -0.03019684      -0.03111797
H        1.95366216       0.57981564       0.18714322      -0.14221258       0.07641744       0.07223488       0.03915275       0.05964918       0.08328434
H        1.17441129       3.52968893       0.76729208       0.11566884      -0.10881053       0.29934793       0.00109675       0.08410339       0.01604380
H        2.16922813       3.16354993      -0.63146789      -0.02593887       0.59931967      -0.17177466      -0.06763970      -0.03761658      -0.00545413
H       -0.07567332       3.16276026      -1.52556705       0.30008777       0.16532222       0.05357417      -0.01475544       0.01227704      -0.01634607
H        0.31740596       1.45900871      -1.35818659       0.39578608      -0.15441901       0.21360671      -0.11615650      -0.01127247      -0.00957968
H       -0.79841739       1.62005793       1.04319909      -0.28296101      -0.13780014       0.03392366      -0.03824639      -0.04924771       0.06040241
H       -1.38948883       3.20700973       0.57931711      -0.23337739       0.30803666      -0.00481660       0.06030235      -0.00325130      -0.09454730
H       -2.25261126      -0.92361347      -2.07558630      -0.32256096      -0.02278916       0.58390752       0.05805454       0.02941146       0.04236618
H       -3.82107175      -0.34090253      -1.53370370       0.28590096       0.30752375       0.08451554       0.00244022       0.06881339      -0.07328556
H       -3.30374557      -0.13782187      -3.23430922      -0.18374459      -0.25270053      -0.29285799      -0.09909217      -0.02019091      -0.00440234
O       -5.10380825       2.99234773      -0.71616829       1.51988878      -0.10707180      -0.07211474       0.03947474      -0.01508410       0.00544247
O       -4.04139449       2.99079986      -1.03111771      -3.47410164       0.84522090      -2.48964840      -0.38054643       0.37389747      -0.03781878
