9
Properties=species:S:1:pos:R:3:momenta:R:3:forces:R:3 pbc="F F F"
C       -9.12891944       0.68057182       1.65359321       0.16275414      -0.76024130      -0.66321698      -0.00190668      -0.00945904      -0.01144390
C       -7.75374124       1.08237520       1.77644329       1.02937847       0.72716558      -0.02191726      -0.01192653      -0.00352859      -0.00665044
H       -9.25210629      -0.06180744       0.84337655      -0.11122456      -0.05448210      -0.40656607      -0.00254806       0.00840793       0.01932605
H       -9.78511748       1.53870072       1.41788914       0.19438046      -0.07766968       0.09186037       0.04187196      -0.01280792       0.02054899
H       -9.50148186       0.22112304       2.58751067       0.15459506       0.09563273      -0.02281693       0.01699760       0.02070123      -0.02266378
C       -6.61223390       1.42291423       1.90663887       0.81882857       0.31805502       0.25754041      -0.02507276       0.00301198       0.01191709
H       -5.32745849       3.31316657       3.27448117      -0.02112452       0.23275149       0.08118247      -0.01965814       0.02483070      -0.02750871
O       -5.13617014       3.05030669       4.16763158      -0.56677271       0.25330203      -0.63596091       0.01714686      -0.01678280       0.00655302
H       -5.26305019       2.10878876       4.21169282       0.24919451       0.07630396       0.57669864      -0.01490425      -0.01437349       0.00992168
