24
Properties=species:S:1:pos:R:3:momenta:R:3:forces:R:3 pbc="F F F"
O        2.74508308       1.79798801       1.86266544      -0.56481942       2.71025272       0.10522660      -0.00747689      -0.01288761       0.00857117
C        1.65924475       1.66782454       1.36872924       0.34516553       1.45239586      -1.93182076       0.03264995       0.04874802       0.00617568
C        0.34459313       1.31214078       1.98709032      -2.13094338      -1.10753266      -0.37834658       0.01032606      -0.01842249      -0.02848554
C        0.17836114      -0.20849398       2.10952309      -0.63736779       0.18138096       1.36646391      -0.03606408       0.00078618       0.08383271
C        0.50488106      -0.99114301       0.83327535      -0.17026086       2.97215862      -0.06667831       0.01970900       0.08289287      -0.01306880
C       -0.30759569      -0.59654339      -0.38341192      -0.98828939      -0.21442359      -1.03530222      -1.75317996       1.31793547      -1.15698086
H        0.02769417       0.65060875      -0.69484370       0.42170332       0.21742750       0.03127411      -0.33137023      -0.38470372       0.53085793
C       -0.01088377      -1.39636048      -1.66336893       0.99147698       1.00286053       1.05119355       0.04600389       0.04838458      -0.23653201
O        0.58069720      -2.44573076      -1.58195954      -4.21675596       0.16196044      -1.03114073      -0.03891336      -0.03604681       0.01153806
C       -0.45978645      -0.78103039      -2.94265208       1.28736916       0.07981451      -0.39495966       0.06223180       0.02071431      -0.03014269
H       -3.29892000       0.02296031      -0.64471882      -0.01158206      -0.43404588       0.18084197       0.06800613       0.09470149       0.03790707
H        0.26836689       1.78347268       2.99093255       0.09691015       0.11804532      -0.06709191      -0.01489659       0.01757440      -0.06947039
H       -0.49099086       1.74313257       1.38421431       0.06345377       0.34922986      -0.10741500       0.00658535      -0.06004824      -0.02452372
H        0.82590283      -0.58558286       2.93025657      -0.13531367      -0.00635363      -0.00115784       0.01250237      -0.07790849       0.09066192
H       -0.86629910      -0.42282872       2.41995544      -0.40052893      -0.50801892      -0.08891658      -0.04939307       0.02727065       0.00787163
H        1.58604925      -0.89235040       0.57950958      -0.22266430       0.10573512      -0.68057363      -0.01916192      -0.02585111       0.02455401
H        0.36488714      -2.08261414       1.01972007      -0.01122826      -0.53337687       0.25705363       0.00908078       0.01509798      -0.01062927
H       -0.29478158      -1.45519748      -3.79704454       0.54672256      -0.12895163       0.26043655       0.03476692      -0.02633524       0.04369834
H       -1.53418765      -0.52491924      -2.91842244       0.00879368      -0.14321760      -0.04859185       0.00369547      -0.06704761       0.08410206
H        0.07842742       0.15590115      -3.15833112       0.26419963      -0.49136316      -0.03517153       0.02851836      -0.02913953      -0.02457344
O       -1.65149587      -0.56037424       0.01027264       0.47854696      -1.01556841       1.13707594       0.36966290      -0.11405243      -1.15261987
O       -2.38252406       0.10697331      -1.04281542      -0.05370004       0.76193024       0.00944798       2.05818188       0.39447852       1.77795127
O        0.45878845       1.87446612      -0.59555644      -1.90892831       0.04107249       0.26152953      -0.61247443      -1.22131972      -0.05846245
O        1.67448851       1.82770086      -0.07301965      -0.37864003      -1.09256463      -2.00916952       0.10100965       0.00517853       0.09776720
