22
Properties=species:S:1:pos:R:3:momenta:R:3:forces:R:3 pbc="F F F"
O       -1.55059752       2.45393389       2.94325673       1.47937400      -0.23191155      -2.01232858       0.08331133       0.01234938      -0.00280121
C       -1.33069277       2.14402854       1.82427589       0.25558534       0.11826072      -1.65809489      -0.03939527       0.47674724      -0.01463429
C       -0.93130648       2.85405100       0.58326782       0.04718972      -0.67359929      -1.46512351      -0.03207986      -0.00326359      -0.02158220
C        0.44554972       2.42164468       0.06403737      -1.09882151       0.94210040      -0.69021396       0.00745012       0.03860572       0.01840946
C        0.69826630       0.91018873       0.04376970      -1.29084956      -3.07620229      -0.21480374       0.01284171       0.02873370       0.01189418
C       -0.19805776       0.06905484      -0.86432803      -0.93335331       0.86976563      -1.66596879      -0.01281084      -0.03368656       0.04939525
H        0.09403271      -1.00035546      -0.77605948      -0.42196746       0.20133731      -0.26939210       0.02250291      -0.06922354       0.06426880
C       -0.21369409       0.51522706      -2.33500951      -0.29107664      -1.52580511       1.21253847       0.05286151      -0.02553704       0.05605926
O       -0.51114878       1.63105764      -2.68210322      -2.06815330      -1.93729337      -0.25950689       0.01220526      -0.00357224      -0.04730140
C        0.19792103      -0.57546941      -3.27932777      -0.02669705       0.53748459      -0.78797445      -0.03223787       0.03591895      -0.01718968
H       -1.55200126       0.87464740       1.45021331       0.16245185      -0.28003878      -0.84715811      -0.32181199      -1.47985642      -0.29568488
H       -1.69255558       2.62030077      -0.20570243       0.28060675      -0.42248937      -0.00622463      -0.03262128       0.00675183      -0.05801095
H       -0.96198952       3.95486065       0.72991895       0.18855776       0.05005502       0.37864401       0.01329778      -0.01508512      -0.00502333
H        0.55884406       2.83084815      -0.96660563       0.17570745       0.19464807      -0.20563887       0.01362874      -0.00966814      -0.00399568
H        1.22618417       2.90519864       0.68448725      -0.68769878       0.15807919       0.65994589       0.06877507       0.00167797      -0.02200654
H        1.75508400       0.73414005      -0.24336193      -0.43735637      -0.41409732      -0.06966518       0.03562862      -0.00234036       0.00625699
H        0.59708870       0.49750880       1.07345999       0.29200455      -0.24264682       0.11163615       0.03241148       0.00763080       0.00474126
H       -0.46765419      -1.44994164      -3.18280665       0.04788050      -0.15095209      -0.20343302       0.05420293       0.02717367      -0.04996572
H        0.14906348      -0.24346172      -4.32672596      -0.10354196       0.21399274      -0.09196726       0.00126850       0.00850867      -0.01665840
H        1.22666217      -0.91964262      -3.09201619      -0.11531593      -0.11756723      -0.10706862      -0.08359124       0.02264979      -0.02567938
O       -1.74659337      -0.24793895       0.80821342      -0.32290098      -1.14777479       0.84344450       0.18935942       0.96756903       0.31209164
O       -1.61968270       0.13219820      -0.46943806      -2.15773781       1.23188494      -2.95081613      -0.04519704       0.00791623       0.05741682
