9
Properties=species:S:1:pos:R:3:momenta:R:3:forces:R:3 pbc="F F F"
C       -9.33240333       5.27778487       2.40417289       0.25504206       0.45655985       0.24373881      -0.00039071       0.01687967      -0.01292637
C       -8.27275330       6.23900542       2.30714067       0.88629169       1.19428204       1.21866887      -0.04061280      -0.03266828      -0.00307472
H       -8.97439589       4.31565002       2.81036172       0.19341487      -0.32647880       0.12874503       0.00483862       0.00037571       0.00623234
H       -9.78776204       5.07046266       1.41961729       0.17633911      -0.36758231      -0.11108829       0.00371509       0.00665110       0.01434950
H      -10.14011725       5.63284575       3.06962883      -0.09284113      -0.28295393       0.12627875       0.00755451      -0.00442544      -0.00527947
C       -7.38863953       7.05242087       2.22736125      -0.28612604       0.99662762       0.39334929       1.33126212       1.09093496      -0.17626283
H       -6.57621840       7.79769095       2.16524241       0.12099631      -0.41581968      -0.31216843      -1.17611309      -1.11121469       0.07895599
O       -5.33983389       6.79421789       0.82498838      -1.61440096       1.28332163      -0.74911823      -0.11107649       0.05962574       0.11093266
H       -5.85498747       6.19707027       0.24773154       0.31556993      -0.40575032      -0.07633314      -0.01917726      -0.02615878      -0.01292710
