22
Properties=species:S:1:pos:R:3:momenta:R:3:forces:R:3 pbc="F F F"
C        7.14668745      -8.70541486      -1.05573477       1.10555219      -0.68432826      -0.58802083      -0.06375520      -0.02993054       0.03193378
C        7.82537211      -8.95334343      -2.39893980       0.40639437       1.27798750       0.47979341       0.05768170      -0.13244539      -0.04736633
C        7.03849154      -8.81287278      -3.56238265      -0.33646622      -1.99197339       1.32748298       0.11571734       0.17436010      -0.12943863
C        7.46951087      -9.34923541      -4.98057715      -0.44321985      -1.70774114      -0.09714963       0.00988040      -0.13358405      -0.16604443
C        5.11040161      -9.28211055       0.33950921       0.96451965       0.15069401      -0.93314728      -0.05761808       0.07649826       0.03822019
C        5.96571521      -9.66279856      -0.86156863       1.26293305      -1.90753924       0.98081704      -0.07859533       0.01019283       0.10341833
H        7.88342175      -8.80756450      -0.23712829      -0.24999933       0.29639770      -0.21831832       0.06897992      -0.13512789       0.11182759
H        6.79469423      -7.65861018      -0.93243765       0.59452239       0.01552067      -0.01611046      -0.03686166       0.12513211      -0.17960195
H        8.82764336      -8.40546329      -2.51265082      -0.15128629       0.06590585      -0.66964161      -0.00143105       0.20884381      -0.06254062
H        8.36285640      -9.95307369      -2.43254795      -0.46646871      -0.34387507       0.17999913       0.14279301      -0.18105687       0.15123534
H        6.04139734      -8.35045595      -3.52437447      -0.19267416      -0.45541691       0.02233803       0.00083947       0.05297841       0.02554998
H       10.06986366      -8.32668418      -7.03512518       0.60554591       0.34241604      -0.15133057       0.00134745       0.01003357      -0.03238050
C        8.12107011     -10.63806426      -5.01148542      -0.72925775       0.18262522      -0.52658943      -0.55279445      -1.34912038       0.26765842
H        4.58998551     -10.12552044       0.82302365      -0.19159018       0.61309471      -0.41149141       0.01715509       0.03104658      -0.01140512
H        5.29426306      -9.63179870      -1.75155090      -0.17933271      -0.13619915       0.52918112       0.05932816      -0.13559397       0.11499984
H        6.30357718     -10.71135463      -0.73690532      -0.25090564       0.62731839       0.10895538       0.06789174       0.04267123      -0.14105584
H        7.98621480     -11.34550456      -4.19207467       0.30377674       0.11911419      -0.57158777       0.04347962       0.16015619      -0.03149837
H        9.18638235     -10.42049643      -5.17781078       0.33785561      -0.08551367      -0.01077337       1.25201984       0.31630760      -0.42092058
H        7.86732121     -11.17730923      -5.96760503       0.25742810       0.26008123       0.74732168       0.16978869       0.18350509       0.22773544
O        4.99108866      -8.14138236       0.71390521      -1.93672695       1.15166320      -0.02977607       0.04776313      -0.00242140       0.01005970
O        9.73688938      -8.62522576      -6.28781900       1.97080525      -1.88031023      -0.59095400      -0.49862951      -0.50923768       0.96222912
O        7.10617290      -8.70333588      -5.89513780      -1.94960211      -1.94737759       2.29561121      -0.76498027       1.21679237      -0.82261535
