22
Properties=species:S:1:pos:R:3:momenta:R:3:forces:R:3 pbc="F F F"
O       -1.52192757       2.46115929       3.40271165      -1.58300659      -1.16631598       1.61837748       0.02895418       0.00549062      -0.02033041
C       -0.62083110       2.91497854       2.86747043       0.24697780       0.39711643       2.19352827      -0.02714878       0.04458225       0.26267650
C       -0.30138592       2.01690796       0.58294119       0.47627524      -0.81504459      -1.19413710      -0.01708197      -0.08337372      -0.35651526
C        0.98673792       1.36107975       0.30282815      -0.32969111       0.15522201      -0.27973059      -0.02546895      -0.01989376       0.03856260
C        0.91400964      -0.17209620       0.25204955       1.86361878       0.21759066       1.34569560      -0.02202767       0.00301903      -0.02699589
C       -0.14183641      -0.73825792      -0.70543254      -0.11157553      -0.14243418      -0.89632410      -0.03024654      -0.00449651      -0.02308827
H        0.04105674      -1.82487362      -0.89420422       0.29954580      -0.10343452       0.18402259       0.01832496       0.02255643       0.01753207
C       -0.26187568       0.01187704      -2.04424660      -0.51367611       0.65286398       1.14427891       0.02785342      -0.01050650       0.01194785
O       -1.27564454       0.55872550      -2.39597871       0.36256094      -1.62848801       0.64880934       0.03902661       0.00992015       0.02554042
C        0.97932275      -0.04015875      -2.88763936      -0.37226192      -0.59451437       1.10860164       0.01633659      -0.02200531      -0.01860001
H       -2.37127325      -1.38712316       1.29045304      -0.05738195      -0.11719871       0.16132086      -0.02150696      -0.00059140       0.01233995
H       -1.18720402       1.43645001       0.77027208      -0.39435576       0.22253468      -0.38801256       0.07010667       0.03117797       0.01532833
H       -0.40019140       3.07133386       0.43610382       0.20090476       0.04612585      -0.17619431      -0.01608508       0.03584956       0.00588906
H        1.41435143       1.75879347      -0.64892118       0.24072737      -0.09184121       0.03061252      -0.05106923      -0.04503918       0.07562056
H        1.71857308       1.66440465       1.08927724       0.43724507      -0.12042334      -0.10977525       0.01042423      -0.00773988      -0.01227500
H        1.90878801      -0.57902258      -0.01043600      -0.01428101      -0.17111846       0.11174321       0.00653679      -0.01018974       0.02653866
H        0.67213970      -0.57512342       1.26365765      -0.19009992       0.13591888       0.57445759       0.01583367       0.07255948      -0.02270011
H        1.17782170       0.93494356      -3.35978315       0.35688105       0.05105307      -0.29304747      -0.02564049      -0.00289635       0.01756848
H        1.87752198      -0.33470341      -2.33511868       0.37409031      -0.37235180      -0.16089548       0.03500114       0.01966566      -0.01592195
H        0.85509570      -0.75420644      -3.71576541       0.16224166       0.20156258       0.26780475      -0.02789054      -0.00619393      -0.01056955
O       -1.51170616      -1.66046097       0.85648964       2.75327745       0.48212575      -0.41087536       0.00063191      -0.00991021      -0.04904295
O       -1.47137385      -0.61707977      -0.13326985       0.33407941       0.05683914      -2.24240883      -0.00486395      -0.02198465       0.04649491
