22
Properties=species:S:1:pos:R:3:momenta:R:3:forces:R:3 pbc="F F F"
C       -0.24394401       0.53386117       1.61845179       1.10555219      -0.68432826      -0.58802083      -0.06375520      -0.02993054       0.03193378
C        0.32164373      -0.39158565       0.53487216       0.40639437       1.27798750       0.47979341       0.05768170      -0.13244539      -0.04736633
C       -0.48650227      -0.71103286      -0.61687898      -0.33646622      -1.99197339       1.32748298       0.11571734       0.17436010      -0.12943863
C        1.32971340       0.30970952      -3.24304971      -0.44321985      -1.70774114      -0.09714963       0.00988040      -0.13358405      -0.16604443
C       -1.93194396       0.76924472       3.48737655       0.96451965       0.15069401      -0.93314728      -0.05761808       0.07649826       0.03822019
C       -1.35410004      -0.14228853       2.42892099       1.26293305      -1.90753924       0.98081704      -0.07859533       0.01019283       0.10341833
H        0.56393102       0.86203256       2.30348917      -0.24999933       0.29639770      -0.21831832       0.06897992      -0.13512789       0.11182759
H       -0.63224191       1.46827840       1.16499775       0.59452239       0.01552067      -0.01611046      -0.03686166       0.12513211      -0.17960195
H        1.24978096       0.07380837       0.08263439      -0.15128629       0.06590585      -0.66964161      -0.00143105       0.20884381      -0.06254062
H        0.72116057      -1.32926880       0.98631609      -0.46646871      -0.34387507       0.17999913       0.14279301      -0.18105687       0.15123534
H       -1.40612490      -0.16509199      -0.76487408      -0.19267416      -0.45541691       0.02233803       0.00083947       0.05297841       0.02554998
H        1.07164141       1.92930821      -2.11085540       0.60554591       0.34241604      -0.15133057       0.00134745       0.01003357      -0.03238050
C        1.40997787      -1.15370498      -3.05936679      -0.72925775       0.18262522      -0.52658943      -0.55279445      -1.34912038       0.26765842
H       -2.73155111       0.31921087       4.09980634      -0.19159018       0.61309471      -0.41149141       0.01715509       0.03104658      -0.01140512
H       -2.16765438      -0.48227346       1.75474957      -0.17933271      -0.13619915       0.52918112       0.05932816      -0.13559397       0.11499984
H       -0.97052195      -1.06605572       2.90950035      -0.25090564       0.62731839       0.10895538       0.06789174       0.04267123      -0.14105584
H        0.66678272      -1.51266592      -2.30296489       0.30377674       0.11911419      -0.57158777       0.04347962       0.16015619      -0.03149837
H        2.39682018      -1.46500339      -2.68611075       0.33785561      -0.08551367      -0.01077337       1.25201984       0.31630760      -0.42092058
H        1.21855506      -1.68916980      -4.00098404       0.25742810       0.26008123       0.74732168       0.16978869       0.18350509       0.22773544
O       -1.56302312       1.90707921       3.66753930      -1.93672695       1.15166320      -0.02977607       0.04776313      -0.00242140       0.01005970
O        1.12873717       0.94235396      -2.01935232       1.97080525      -1.88031023      -0.59095400      -0.49862951      -0.50923768       0.96222912
O        1.40886356       0.99325411      -4.23421748      -1.94960211      -1.94737759       2.29561121      -0.76498027       1.21679237      -0.82261535
