9
Properties=species:S:1:pos:R:3:momenta:R:3:forces:R:3 pbc="F F F"
C        0.20613193       0.82072627      -0.94302087      -0.73252203       0.94135938      -1.89774278       0.01877796      -0.16437495      -0.04363432
C        0.05150436      -0.08103785       0.19597848       1.08394040      -0.07299060      -0.40564664      -0.04163362       0.01734394       0.10882732
H       -0.54318709       0.62959527      -1.72677716       0.06363951       0.09305846      -0.13823247       0.02569784      -0.01136257      -0.03477093
H        1.20534017       0.71953341      -1.40159967       0.17813263      -0.17982218      -0.16818116      -0.12931613       0.05852396       0.06129333
H        0.10814324       1.87632638      -0.63470702       0.02042558      -0.27538040       0.31103294      -0.00003214      -0.02728266       0.09728403
C       -0.66560122      -1.07995144       0.67638185      -1.22774725       0.27364909      -0.21312081       0.34391846       2.01637101      -2.39555310
H       -1.40980105      -1.79833246       0.69482587       0.00915509       0.10867402       0.31917569      -0.01708263      -0.01519537      -0.02697406
O        0.89283587      -0.02011647       1.30837102      -0.69385763      -0.41818133       1.36491290      -1.91838405      -1.49923252      -2.78919922
H        0.15463380      -1.06674312       1.83054749      -0.39368459      -0.40039236       0.25778652       1.71805432      -0.37479085       5.02272695
