24
Properties=species:S:1:pos:R:3:momenta:R:3:forces:R:3 pbc="F F F"
O       -1.57227511       2.86097882       3.77386234      -0.57822674      -2.23575043       0.61326139       0.00057899      -0.00322615      -0.02406320
C       -2.37565288       3.54524981       4.27317448      -1.72819823       1.13558101      -0.97903373       0.00847542       0.04759954      -0.07539089
C       -3.74817883       4.04111734       4.13464219      -0.38955907       1.74072842      -0.30950481       0.01619614       0.01408066       0.00648628
C       -4.66448706       3.11628447       3.32296037      -1.16220924       0.49362109       0.55628298       0.01453496       0.01806468      -0.01467321
C       -4.28088960       3.11981821       1.84018237       1.65564670       0.85712354      -1.08942668       0.02375882      -0.01771154      -0.02827539
C       -4.83410525       1.90906533       1.08386409      -0.32972579       0.15435572       1.22296232      -0.00691966      -0.01100197      -0.01245961
H       -4.33002124       0.95828012       1.36424937      -0.00169918       0.66232358      -0.04138156      -0.00571601      -0.04543183       0.04253421
C       -6.35966533       1.78013226       1.26239357      -0.77809852       1.24348686      -1.60429053      -0.01569572       0.07607156       0.04675579
O       -6.80288564       1.05447874       2.12208452      -0.00941188       1.87154988      -1.16447851      -0.00514365      -0.00202554      -0.03760322
C       -7.20660896       2.62818888       0.37099410       0.26533063       2.00952575       0.49359147      -0.01962225       0.00414006      -0.02190896
H       -3.18570905       1.22038903      -1.13066254       0.66460219       0.10051702      -0.11652200       0.01092688      -0.00834539      -0.01169219
H       -4.17618472       4.21697398       5.14794604       0.88260538      -0.40916667      -0.84831250      -0.00371023      -0.04137305       0.01177563
H       -3.70165062       5.05155639       3.66604191      -0.44377474      -0.54295559       0.75615265      -0.01554310       0.04194632       0.03144022
H       -4.63716196       2.08535847       3.73639238       0.05310866      -0.25187820       0.37173381       0.03549904       0.01637868      -0.01650048
H       -5.71659139       3.44538320       3.44283174       0.17048434       0.42295949      -0.26252458      -0.01564556      -0.01072258       0.01979893
H       -4.62809284       4.05135946       1.34893562       0.17992081      -0.80058259       0.18994240       0.00724217       0.01443541       0.01637604
H       -3.17601338       3.12185912       1.72630364       0.12988755      -0.00710787      -0.18400192       0.04200130      -0.00222700       0.00075064
H       -6.61794207       3.26224273      -0.30758900       0.09462849       0.26672269       0.31348937       0.00461784      -0.00307561      -0.01569979
H       -7.85003611       2.00262803      -0.26631650      -0.61768898      -0.04105409      -0.13176595      -0.02858343      -0.04067464      -0.00732998
H       -7.87996345       3.27403301       0.95240031       0.13973692      -0.46447821      -0.23988117       0.00576855      -0.02302326       0.00448032
O       -4.54889318       2.20798459      -0.31272326      -1.11022446      -0.04751753      -0.95057202      -0.00137123       0.02997078      -0.02559868
O       -4.13838338       0.98865608      -0.90971790       0.16420338       0.18078056       0.72247237      -0.02350512      -0.01034623       0.00246142
O       -2.22692276       1.61920702       6.97318273       0.87539625       2.59566170      -2.19596529      -0.08798268       0.06112996       0.00312838
O       -3.03701477       2.32725231       6.70413081      -0.36419572      -0.76171887       0.68074467       0.05983854      -0.10463286       0.10520772
