9
Properties=species:S:1:pos:R:3:momenta:R:3:forces:R:3 pbc="F F F"
C       -3.52339192       3.13798955       0.36621669       1.11298723       1.52247132      -0.35263354      -1.20455893       0.91818583      -1.65169288
C       -3.53659211       1.90359205       0.98451990      -0.03282065       1.64203063      -1.76829851       1.23227694      -1.19412132       0.92455875
H       -4.44867018       3.47177463      -0.11000061      -0.11513174       0.01460915       0.30736974       0.24398904       0.18743648       0.00018630
H       -2.63120849       3.61049982      -0.02233743       0.26229809      -0.11487645      -0.01863978      -0.07034182      -0.17435837       0.32069137
H       -3.86271430       2.94057111       1.73238557       0.26424463      -0.16425320       0.42322444       0.30539828       0.34473059       0.65577542
C       -2.92292385       0.78819907       1.38451338       0.46417853      -0.68946553      -0.42399592      -0.14666278      -0.40255502      -0.13802021
H       -3.08788520      -0.24071222       1.05105852      -0.02782034       0.08871793      -0.41929807       0.08081407       0.21881257      -0.24872794
O       -2.08476349       0.68551084       2.47180450      -1.87968196      -2.08893846      -0.21600685      -0.45497510      -0.14717470       0.07264520
H       -1.83665101       1.53943628       2.86773969       0.46608609       0.54067331      -0.46906802       0.01406029       0.24904394       0.06458398
