9
Properties=species:S:1:pos:R:3:momenta:R:3:forces:R:3 pbc="F F F"
C       -5.79426387       2.70464489       4.20656647       0.07962272       0.48035300      -1.03699250       0.00235945      -0.01513379      -0.00392957
C       -5.02662615       1.58215894       3.76536014      -0.97673750       0.67269739      -0.64295149       2.10169202      -1.87023416      -0.05852698
H       -5.41395026       3.19117857       5.11607813      -0.33089728      -0.32765480       0.26119639       0.00623542      -0.00536194       0.00247890
H       -6.84597580       2.41116358       4.39335807      -0.09902639       0.01226563       0.51364086       0.01845355      -0.02308070       0.02665222
H       -5.85446302       3.47308819       3.41035491      -0.03786135      -0.00461800       0.39704687       0.03736881      -0.00396195       0.01236922
C       -3.82932059       0.82998015       4.12059420       0.69347139      -0.79437877      -1.07088812       0.02234965       0.02115655       0.02066346
H       -3.10856954       0.90910913       4.91138514       0.00765424       0.00549213      -0.22759433      -0.00541603      -0.01570929       0.01396736
O       -3.73740939      -0.09402814       3.18686323      -1.74651218       1.10416574       0.16242800       1.52030036       0.65131951       2.24071431
H       -4.84390600       0.61354502       2.86302849      -0.19837914       0.73487749       0.14470323      -3.70334323       1.26100577      -2.25438893
