24
Properties=species:S:1:pos:R:3:momenta:R:3:forces:R:3 pbc="F F F"
O       -1.36690043       2.00581369      -0.84033388      -1.79401234      -0.75480747       0.07847898       0.00129008       0.08982069       0.08201715
C       -1.42167439       2.16062324       0.34903741      -0.44867058      -0.51170430      -0.81065030       0.16449606      -0.04491232      -0.04705706
C       -0.65989931       1.54268708       1.48458615      -0.10885367      -0.68799086       1.52632949      -2.46657613       1.32540651       0.97984427
C       -0.77456890       0.05037689       1.63443910       1.91077572       0.33599805       0.35855158       0.17397701       0.02957359       0.11357729
C        0.43356948      -0.69985009       1.06029119      -0.80468938      -0.73603392      -0.44860895       0.08527164      -0.00916808      -0.03050572
C        0.58461521      -0.52916056      -0.45324130      -1.05165627       0.27266910      -0.68034190      -0.03541740      -0.04838993      -0.01139063
H        0.54927824       0.53893438      -0.77489529       0.09460670      -0.00775241      -0.07983633       0.03042275      -0.02477141      -0.05147009
C        1.90265921      -1.15308278      -0.95725480      -0.38823614      -0.17085382       0.77348237      -0.09933784       0.08353161      -0.08913477
O        2.93249860      -0.92622931      -0.36285882      -1.05498439      -0.77779642       0.44417475      -0.01789634       0.00481695       0.01644471
C        1.81136170      -1.99076157      -2.18410691      -0.17637512       0.49231595      -0.42552323      -0.01206762      -0.06001733      -0.01440945
H       -1.45891752       0.07453642      -2.05483561      -0.06643646      -0.50318123       0.07505581       0.04254957       0.03370719       0.08428034
H        0.34888851       1.95883188       1.62974364       0.07497030       0.18255257      -0.18506529      -0.06923473      -0.02493382      -0.08234105
H       -1.29375097       2.13220104       2.49376296      -0.04947396       0.59940925       0.08589182       0.28319694       0.11970682       1.13139699
H       -0.88113074      -0.21149225       2.71090408       0.27761236      -0.42852372       0.52426225      -0.08538436       0.04981550      -0.00457954
H       -1.70323172      -0.32786803       1.14848628       0.04198112       0.01108095       0.09251108       0.00281325       0.08427225       0.06874379
H        1.37895448      -0.37578597       1.55028352       0.30688560       0.06238183       0.31134417      -0.01932622       0.07588647       0.01316773
H        0.33073769      -1.78113113       1.29800376       0.12108901       0.57275038       0.47888605      -0.06725308      -0.07674558      -0.04856569
H        2.79649487      -2.33403043      -2.52624859       0.21707340      -0.44014368      -0.26785217       0.07325683       0.04458127       0.00882844
H        1.17423373      -2.87482726      -2.01527174      -0.58700340       0.42413346       0.34006614      -0.03154587      -0.00509436       0.09225246
H        1.32363751      -1.44481955      -3.01062368      -0.18431692       0.41068039      -0.29081635       0.02842522       0.06028858       0.01381264
O       -0.56750585      -1.22498559      -1.00751738       0.95385277      -2.38963367       1.18904047       0.06976887      -0.10294709      -0.03116732
O       -0.82392653      -0.68141624      -2.28500985       1.20508298      -0.84935818      -2.33135749      -0.04317881       0.03814405      -0.12206678
O       -2.29290217       2.97861817       2.25068283       1.53481681       0.16917955       2.12177619       1.84844284      -1.55031071      -2.20840768
O       -2.32252070       3.11281797       0.86197692       0.13969279       0.38592104       0.75718717       0.14330736      -0.09226087       0.13672998
