22
Properties=species:S:1:pos:R:3:momenta:R:3:forces:R:3 pbc="F F F"
O       -0.70590474       3.84293987       0.58522378      -1.03215513      -2.78171851      -0.89780682       0.02563611       0.11377126      -0.02130593
C       -0.21332299       4.77408217      -0.01124108       0.20622356      -0.85951618       1.66405066       0.07829271       0.01925800       0.02538877
C       -0.60653821       5.21437660      -1.40621127       0.00316695       0.53022003       0.47473281       0.01736318       0.02040574       0.07731600
C       -2.06299265       4.95037812      -1.79892182      -1.07759970       1.23187240      -0.42211566      -0.00725919       0.03127632      -0.00810651
C       -2.57425464       3.54032338      -1.48461972       0.80526985       1.56711958      -0.56468526      -0.03970274       0.04045991       0.11415858
C       -1.75176591       2.44456644      -2.04165880      -0.27150673      -1.19204925       0.71979545      -0.12441098      -0.25271009       0.21249605
H       -0.74290172       2.24623290      -1.70558033      -0.77935975      -0.11300198       0.20195051       0.00303265       0.02633407      -0.04016724
C       -0.18514859       2.99670927      -3.94142148      -1.30371569       0.61752620      -1.29383731       0.19880592       0.17172327      -0.26741503
O        0.84507592       3.46423312      -4.10444422       0.34812643      -1.44419248       2.29378606      -0.02306701      -0.05267992       0.00643577
C       -0.43712171       1.29016848      -6.03020219       0.89346599      -0.54907772      -1.12853469      -0.00532344      -0.11887513      -0.04117377
H        0.61353470       5.36150229       0.42895297      -0.67471057      -0.16973568      -0.13238649      -0.04166436      -0.01780023       0.01316571
H       -0.40833705       6.30464447      -1.51971406      -0.30569760       0.23686708       0.38091743       0.04359901      -0.08260303      -0.02882038
H        0.09118240       4.71256619      -2.11576419      -0.04171786       0.05858280      -0.16349061      -0.04483526       0.06158943       0.01205918
H       -2.71300495       5.67807116      -1.26327333      -0.42402383       0.51622969       0.02186835      -0.00238689      -0.02275091      -0.04082507
H       -2.19925621       5.15832012      -2.87657609       0.88316097      -0.07260738       0.00813116       0.04186106       0.03857540      -0.08952164
H       -2.56180273       3.42421216      -0.36897806      -0.33675221       0.39417212      -0.28984424      -0.08772179      -0.12170796       0.14925583
H       -3.63722519       3.44542615      -1.78589054       0.36592709       0.12157093       0.45407372      -0.03377426       0.01616986      -0.06927705
H       -1.00960377       1.89598130      -6.68299072      -0.03012447       0.10441300       0.11791902       0.05704196      -0.00032065       0.02106751
H        0.60464180       1.16072325      -6.16755028       0.15766160       0.59103134       0.10030829      -0.01699505       0.05859033      -0.04291747
H       -0.92871627       0.73772422      -5.25662447      -0.03441927       0.22395215      -0.20657169      -0.02980267       0.04872536       0.00874706
O       -1.76689978       0.64553111      -3.30178111      -2.37522240      -0.25653429       0.85630007      -0.04448954      -0.01282180       0.04488170
O       -2.40036330       1.62657219      -2.85385494       2.34111582      -0.66426869       0.93918642       0.03580057       0.03539079      -0.03544208
